test01
     RDKit          3D

 58 62  0  0  0  0  0  0  0  0999 V2000
    2.7437   24.0014   18.9988 C   0  0  0  0  0  0  0  0  0  0  0  0
    2.8968   25.3927   18.7246 O   0  0  0  0  0  0  0  0  0  0  0  0
    2.1812   26.3713   19.3696 C   0  0  0  0  0  0  0  0  0  0  0  0
    1.3118   26.1095   20.4400 C   0  0  0  0  0  0  0  0  0  0  0  0
    0.5982   27.1436   21.0534 C   0  0  0  0  0  0  0  0  0  0  0  0
    0.7248   28.4696   20.6433 C   0  0  0  0  0  0  0  0  0  0  0  0
    1.5984   28.7660   19.5784 C   0  0  0  0  0  0  0  0  0  0  0  0
    2.3539   27.7652   18.9130 C   0  0  0  0  0  0  0  0  0  0  0  0
    3.1177   27.9616   17.7847 N   0  0  0  0  0  0  0  0  0  0  0  0
    3.0459   29.0651   17.0019 C   0  0  0  0  0  0  0  0  0  0  0  0
    4.0666   29.5356   16.2454 N   0  0  0  0  0  0  0  0  0  0  0  0
    3.5713   30.6767   15.6826 C   0  0  0  0  0  0  0  0  0  0  0  0
    2.2622   30.8609   16.1437 C   0  0  0  0  0  0  0  0  0  0  0  0
    1.9373   29.8160   16.9359 O   0  0  0  0  0  0  0  0  0  0  0  0
    1.2511   31.8851   15.8328 C   0  0  0  0  0  0  0  0  0  0  0  0
    0.2283   32.1520   16.7573 C   0  0  0  0  0  0  0  0  0  0  0  0
   -0.7547   33.0821   16.4483 C   0  0  0  0  0  0  0  0  0  0  0  0
   -0.7434   33.7271   15.2124 C   0  0  0  0  0  0  0  0  0  0  0  0
    0.2589   33.4356   14.2728 C   0  0  0  0  0  0  0  0  0  0  0  0
    1.2466   32.4948   14.5840 C   0  0  0  0  0  0  0  0  0  0  0  0
    0.2767   34.1093   12.9393 C   0  0  0  0  0  0  0  0  0  0  0  0
    0.5169   33.3630   11.7809 C   0  0  0  0  0  0  0  0  0  0  0  0
    0.5484   34.0066   10.5455 C   0  0  0  0  0  0  0  0  0  0  0  0
    0.3089   35.3779   10.4789 C   0  0  0  0  0  0  0  0  0  0  0  0
    0.0602   36.0711   11.6040 N   0  0  0  0  0  0  0  0  0  0  0  0
    0.0413   35.4808   12.8118 C   0  0  0  0  0  0  0  0  0  0  0  0
   -0.1151   29.6203   21.4374 S   0  0  0  0  0  0  0  0  0  0  0  0
    0.5430   30.8860   21.3651 O   0  0  0  0  0  0  0  0  0  0  0  0
   -0.1404   29.2257   22.8170 O   0  0  0  0  0  0  0  0  0  0  0  0
   -1.5708   29.8267   20.8238 N   0  0  0  0  0  0  0  0  0  0  0  0
   -1.8015   29.5298   19.4192 C   0  0  0  0  0  0  0  0  0  0  0  0
   -3.1412   30.0802   18.9430 C   0  0  0  0  0  0  0  0  0  0  0  0
   -3.2111   31.5789   18.6780 C   0  0  0  0  0  0  0  0  0  0  0  0
   -3.1390   30.6013   17.5085 C   0  0  0  0  0  0  0  0  0  0  0  0
   -2.0564   30.6651   21.1484 H   0  0  0  0  0  0  0  0  0  0  0  0
    3.5743   27.1236   17.4499 H   0  0  0  0  0  0  0  0  0  0  0  0
    1.1722   25.1022   20.8038 H   0  0  0  0  0  0  0  0  0  0  0  0
   -0.0606   26.8940   21.8737 H   0  0  0  0  0  0  0  0  0  0  0  0
    1.7043   29.7981   19.2815 H   0  0  0  0  0  0  0  0  0  0  0  0
    3.5250   23.4421   18.4883 H   0  0  0  0  0  0  0  0  0  0  0  0
    2.8395   23.7954   20.0661 H   0  0  0  0  0  0  0  0  0  0  0  0
    4.1327   31.3075   15.0107 H   0  0  0  0  0  0  0  0  0  0  0  0
    1.7771   23.6363   18.6489 H   0  0  0  0  0  0  0  0  0  0  0  0
    0.2079   31.6560   17.7171 H   0  0  0  0  0  0  0  0  0  0  0  0
   -1.5330   33.3037   17.1630 H   0  0  0  0  0  0  0  0  0  0  0  0
   -1.5206   34.4391   14.9793 H   0  0  0  0  0  0  0  0  0  0  0  0
    2.0208   32.2619   13.8671 H   0  0  0  0  0  0  0  0  0  0  0  0
    0.6895   32.2977   11.8253 H   0  0  0  0  0  0  0  0  0  0  0  0
    0.7685   33.4351    9.6613 H   0  0  0  0  0  0  0  0  0  0  0  0
    0.3175   35.9231    9.5478 H   0  0  0  0  0  0  0  0  0  0  0  0
   -0.1662   36.1166   13.6584 H   0  0  0  0  0  0  0  0  0  0  0  0
   -4.0198   29.5451   19.3065 H   0  0  0  0  0  0  0  0  0  0  0  0
   -1.7890   28.4447   19.3097 H   0  0  0  0  0  0  0  0  0  0  0  0
   -0.9704   29.9127   18.8234 H   0  0  0  0  0  0  0  0  0  0  0  0
   -2.3437   32.1917   18.9240 H   0  0  0  0  0  0  0  0  0  0  0  0
   -4.1513   32.0949   18.8769 H   0  0  0  0  0  0  0  0  0  0  0  0
   -4.0264   30.4539   16.8954 H   0  0  0  0  0  0  0  0  0  0  0  0
   -2.2216   30.5379   16.9209 H   0  0  0  0  0  0  0  0  0  0  0  0
  1 40  1  0
  1 41  1  0
  1 43  1  0
  1  2  1  0
  2  3  1  0
  3  4  2  0
  4  5  1  0
  4 37  1  0
  5 38  1  0
  5  6  2  0
  6  7  1  0
  7  8  2  0
  7 39  1  0
  3  8  1  0
  8  9  1  0
  9 10  1  0
  9 36  1  0
 10 11  2  0
 10 14  1  0
 11 12  1  0
 12 13  2  0
 12 42  1  0
 13 14  1  0
 13 15  1  0
 15 16  2  0
 15 20  1  0
 16 17  1  0
 16 44  1  0
 17 18  2  0
 17 45  1  0
 18 19  1  0
 18 46  1  0
 19 20  2  0
 19 21  1  0
 20 47  1  0
 21 22  2  0
 21 26  1  0
 22 23  1  0
 22 48  1  0
 23 24  2  0
 23 49  1  0
 24 25  1  0
 24 50  1  0
 25 26  2  0
 26 51  1  0
  6 27  1  0
 27 29  2  0
 27 30  1  0
 27 28  2  0
 30 31  1  0
 30 35  1  0
 31 32  1  0
 31 53  1  0
 31 54  1  0
 32 33  1  0
 32 34  1  0
 32 52  1  0
 33 34  1  0
 33 55  1  0
 33 56  1  0
 34 57  1  0
 34 58  1  0
M  END
>  <ConfID>  (1) 
1

>  <Score>  (1) 
-10.34

>  <VDW>  (1) 
-50.03

>  <Hbond>  (1) 
-0.95

>  <Electrop>  (1) 
-2.45

$$$$
test01
     RDKit          3D

 58 62  0  0  0  0  0  0  0  0999 V2000
    0.5571   29.7567   21.2105 C   0  0  0  0  0  0  0  0  0  0  0  0
    0.9038   29.1309   19.9766 O   0  0  0  0  0  0  0  0  0  0  0  0
    1.0493   27.7727   19.8351 C   0  0  0  0  0  0  0  0  0  0  0  0
    0.1639   26.8412   20.3996 C   0  0  0  0  0  0  0  0  0  0  0  0
    0.3665   25.4678   20.2335 C   0  0  0  0  0  0  0  0  0  0  0  0
    1.4382   24.9654   19.4975 C   0  0  0  0  0  0  0  0  0  0  0  0
    2.3382   25.8756   18.9091 C   0  0  0  0  0  0  0  0  0  0  0  0
    2.1905   27.2817   19.0364 C   0  0  0  0  0  0  0  0  0  0  0  0
    3.1007   28.2208   18.6066 N   0  0  0  0  0  0  0  0  0  0  0  0
    2.8933   29.0555   17.5597 C   0  0  0  0  0  0  0  0  0  0  0  0
    3.6496   29.0774   16.4358 N   0  0  0  0  0  0  0  0  0  0  0  0
    3.1225   30.0955   15.6943 C   0  0  0  0  0  0  0  0  0  0  0  0
    2.0691   30.6663   16.4188 C   0  0  0  0  0  0  0  0  0  0  0  0
    1.9143   29.9712   17.5668 O   0  0  0  0  0  0  0  0  0  0  0  0
    1.1297   31.7508   16.0881 C   0  0  0  0  0  0  0  0  0  0  0  0
    0.1477   32.1248   17.0196 C   0  0  0  0  0  0  0  0  0  0  0  0
   -0.7704   33.1136   16.6938 C   0  0  0  0  0  0  0  0  0  0  0  0
   -0.7364   33.7122   15.4353 C   0  0  0  0  0  0  0  0  0  0  0  0
    0.2231   33.3147   14.4899 C   0  0  0  0  0  0  0  0  0  0  0  0
    1.1452   32.3150   14.8182 C   0  0  0  0  0  0  0  0  0  0  0  0
    0.2638   33.9380   13.1326 C   0  0  0  0  0  0  0  0  0  0  0  0
    0.4969   33.1446   12.0044 C   0  0  0  0  0  0  0  0  0  0  0  0
    0.5501   33.7412   10.7464 C   0  0  0  0  0  0  0  0  0  0  0  0
    0.3388   35.1136   10.6274 C   0  0  0  0  0  0  0  0  0  0  0  0
    0.0964   35.8529   11.7242 N   0  0  0  0  0  0  0  0  0  0  0  0
    0.0571   35.3083   12.9527 C   0  0  0  0  0  0  0  0  0  0  0  0
    1.5804   23.3502   19.3209 S   0  0  0  0  0  0  0  0  0  0  0  0
    1.9973   23.0076   17.9984 O   0  0  0  0  0  0  0  0  0  0  0  0
    0.2677   22.8031   19.5145 O   0  0  0  0  0  0  0  0  0  0  0  0
    2.6624   22.7344   20.3150 N   0  0  0  0  0  0  0  0  0  0  0  0
    2.2354   22.2293   21.6100 C   0  0  0  0  0  0  0  0  0  0  0  0
    2.8807   23.0036   22.7538 C   0  0  0  0  0  0  0  0  0  0  0  0
    2.0380   24.0930   23.4051 C   0  0  0  0  0  0  0  0  0  0  0  0
    2.2466   22.7616   24.1208 C   0  0  0  0  0  0  0  0  0  0  0  0
    3.5498   23.2400   20.3470 H   0  0  0  0  0  0  0  0  0  0  0  0
    4.0304   28.0903   18.9827 H   0  0  0  0  0  0  0  0  0  0  0  0
   -0.6859   27.1691   20.9799 H   0  0  0  0  0  0  0  0  0  0  0  0
   -0.3412   24.7878   20.6875 H   0  0  0  0  0  0  0  0  0  0  0  0
    3.1533   25.4770   18.3248 H   0  0  0  0  0  0  0  0  0  0  0  0
    0.4511   30.8287   21.0572 H   0  0  0  0  0  0  0  0  0  0  0  0
   -0.3968   29.3855   21.5885 H   0  0  0  0  0  0  0  0  0  0  0  0
    3.4939   30.3862   14.7237 H   0  0  0  0  0  0  0  0  0  0  0  0
    1.3289   29.5934   21.9641 H   0  0  0  0  0  0  0  0  0  0  0  0
    0.1100   31.6657   17.9971 H   0  0  0  0  0  0  0  0  0  0  0  0
   -1.5162   33.4170   17.4132 H   0  0  0  0  0  0  0  0  0  0  0  0
   -1.4638   34.4711   15.1897 H   0  0  0  0  0  0  0  0  0  0  0  0
    1.8860   32.0005   14.0971 H   0  0  0  0  0  0  0  0  0  0  0  0
    0.6476   32.0784   12.0894 H   0  0  0  0  0  0  0  0  0  0  0  0
    0.7647   33.1331    9.8857 H   0  0  0  0  0  0  0  0  0  0  0  0
    0.3650   35.6236    9.6769 H   0  0  0  0  0  0  0  0  0  0  0  0
   -0.1434   35.9790   13.7737 H   0  0  0  0  0  0  0  0  0  0  0  0
    3.9644   23.1125   22.6889 H   0  0  0  0  0  0  0  0  0  0  0  0
    2.5294   21.1803   21.6630 H   0  0  0  0  0  0  0  0  0  0  0  0
    1.1453   22.2506   21.6693 H   0  0  0  0  0  0  0  0  0  0  0  0
    1.0652   24.3269   22.9720 H   0  0  0  0  0  0  0  0  0  0  0  0
    2.5456   24.9809   23.7842 H   0  0  0  0  0  0  0  0  0  0  0  0
    2.8885   22.7359   24.9997 H   0  0  0  0  0  0  0  0  0  0  0  0
    1.4122   22.0632   24.2039 H   0  0  0  0  0  0  0  0  0  0  0  0
  1 40  1  0
  1 41  1  0
  1 43  1  0
  1  2  1  0
  2  3  1  0
  3  4  2  0
  4  5  1  0
  4 37  1  0
  5 38  1  0
  5  6  2  0
  6  7  1  0
  7  8  2  0
  7 39  1  0
  3  8  1  0
  8  9  1  0
  9 10  1  0
  9 36  1  0
 10 11  2  0
 10 14  1  0
 11 12  1  0
 12 13  2  0
 12 42  1  0
 13 14  1  0
 13 15  1  0
 15 16  2  0
 15 20  1  0
 16 17  1  0
 16 44  1  0
 17 18  2  0
 17 45  1  0
 18 19  1  0
 18 46  1  0
 19 20  2  0
 19 21  1  0
 20 47  1  0
 21 22  2  0
 21 26  1  0
 22 23  1  0
 22 48  1  0
 23 24  2  0
 23 49  1  0
 24 25  1  0
 24 50  1  0
 25 26  2  0
 26 51  1  0
  6 27  1  0
 27 29  2  0
 27 30  1  0
 27 28  2  0
 30 31  1  0
 30 35  1  0
 31 32  1  0
 31 53  1  0
 31 54  1  0
 32 33  1  0
 32 34  1  0
 32 52  1  0
 33 34  1  0
 33 55  1  0
 33 56  1  0
 34 57  1  0
 34 58  1  0
M  END
>  <ConfID>  (2) 
2

>  <Score>  (2) 
-8.84

>  <VDW>  (2) 
-45.48

>  <Hbond>  (2) 
-1.28

>  <Electrop>  (2) 
-1.77

$$$$
test01
     RDKit          3D

 58 62  0  0  0  0  0  0  0  0999 V2000
    0.5495   35.5875   10.7851 C   0  0  0  0  0  0  0  0  0  0  0  0
    0.8217   34.7714   11.9228 O   0  0  0  0  0  0  0  0  0  0  0  0
    0.1619   34.9030   13.1200 C   0  0  0  0  0  0  0  0  0  0  0  0
   -0.5169   36.0713   13.5000 C   0  0  0  0  0  0  0  0  0  0  0  0
   -1.1627   36.1550   14.7372 C   0  0  0  0  0  0  0  0  0  0  0  0
   -1.1731   35.0896   15.6357 C   0  0  0  0  0  0  0  0  0  0  0  0
   -0.5099   33.8991   15.2784 C   0  0  0  0  0  0  0  0  0  0  0  0
    0.1635   33.7461   14.0381 C   0  0  0  0  0  0  0  0  0  0  0  0
    0.9424   32.6683   13.6818 N   0  0  0  0  0  0  0  0  0  0  0  0
    1.7514   32.0000   14.5387 C   0  0  0  0  0  0  0  0  0  0  0  0
    3.1047   32.0626   14.5212 N   0  0  0  0  0  0  0  0  0  0  0  0
    3.4951   31.1998   15.5047 C   0  0  0  0  0  0  0  0  0  0  0  0
    2.3477   30.6298   16.0693 C   0  0  0  0  0  0  0  0  0  0  0  0
    1.2635   31.1777   15.4783 O   0  0  0  0  0  0  0  0  0  0  0  0
    2.1731   29.6821   17.1826 C   0  0  0  0  0  0  0  0  0  0  0  0
    2.7513   28.4049   17.1023 C   0  0  0  0  0  0  0  0  0  0  0  0
    2.5494   27.4912   18.1275 C   0  0  0  0  0  0  0  0  0  0  0  0
    1.7509   27.8298   19.2189 C   0  0  0  0  0  0  0  0  0  0  0  0
    1.1433   29.0944   19.2840 C   0  0  0  0  0  0  0  0  0  0  0  0
    1.3443   30.0128   18.2479 C   0  0  0  0  0  0  0  0  0  0  0  0
    0.2745   29.4670   20.4410 C   0  0  0  0  0  0  0  0  0  0  0  0
   -0.9397   30.1259   20.2214 C   0  0  0  0  0  0  0  0  0  0  0  0
   -1.7319   30.4835   21.3103 C   0  0  0  0  0  0  0  0  0  0  0  0
   -1.3185   30.1516   22.5992 C   0  0  0  0  0  0  0  0  0  0  0  0
   -0.1568   29.5001   22.7844 N   0  0  0  0  0  0  0  0  0  0  0  0
    0.6371   29.1581   21.7547 C   0  0  0  0  0  0  0  0  0  0  0  0
   -1.9822   35.2569   17.0420 S   0  0  0  0  0  0  0  0  0  0  0  0
   -2.7816   34.1064   17.3207 O   0  0  0  0  0  0  0  0  0  0  0  0
   -2.8727   36.3690   16.8687 O   0  0  0  0  0  0  0  0  0  0  0  0
   -0.9957   35.4385   18.2798 N   0  0  0  0  0  0  0  0  0  0  0  0
   -0.5704   34.2682   19.0306 C   0  0  0  0  0  0  0  0  0  0  0  0
   -0.3777   34.5902   20.5083 C   0  0  0  0  0  0  0  0  0  0  0  0
   -1.3655   33.9596   21.4816 C   0  0  0  0  0  0  0  0  0  0  0  0
    0.0503   33.4024   21.3657 C   0  0  0  0  0  0  0  0  0  0  0  0
   -1.1930   36.2505   18.8678 H   0  0  0  0  0  0  0  0  0  0  0  0
    1.0443   32.5511   12.6824 H   0  0  0  0  0  0  0  0  0  0  0  0
   -0.5452   36.9304   12.8461 H   0  0  0  0  0  0  0  0  0  0  0  0
   -1.6718   37.0756   14.9872 H   0  0  0  0  0  0  0  0  0  0  0  0
   -0.5406   33.0733   15.9726 H   0  0  0  0  0  0  0  0  0  0  0  0
   -0.4542   35.9999   10.8653 H   0  0  0  0  0  0  0  0  0  0  0  0
    1.2434   36.4275   10.7253 H   0  0  0  0  0  0  0  0  0  0  0  0
    4.5256   31.0094   15.7623 H   0  0  0  0  0  0  0  0  0  0  0  0
    0.6086   35.0078    9.8629 H   0  0  0  0  0  0  0  0  0  0  0  0
    3.3698   28.1304   16.2598 H   0  0  0  0  0  0  0  0  0  0  0  0
    3.0065   26.5142   18.0787 H   0  0  0  0  0  0  0  0  0  0  0  0
    1.5915   27.1059   20.0036 H   0  0  0  0  0  0  0  0  0  0  0  0
    0.8794   30.9875   18.2875 H   0  0  0  0  0  0  0  0  0  0  0  0
   -1.2715   30.3733   19.2237 H   0  0  0  0  0  0  0  0  0  0  0  0
   -2.6475   31.0213   21.1393 H   0  0  0  0  0  0  0  0  0  0  0  0
   -1.8964   30.4013   23.4755 H   0  0  0  0  0  0  0  0  0  0  0  0
    1.5502   28.6380   21.9992 H   0  0  0  0  0  0  0  0  0  0  0  0
    0.0502   35.5717   20.7187 H   0  0  0  0  0  0  0  0  0  0  0  0
    0.3736   33.9312   18.6007 H   0  0  0  0  0  0  0  0  0  0  0  0
   -1.2872   33.4580   18.8818 H   0  0  0  0  0  0  0  0  0  0  0  0
   -2.2041   33.3922   21.0772 H   0  0  0  0  0  0  0  0  0  0  0  0
   -1.6397   34.5215   22.3753 H   0  0  0  0  0  0  0  0  0  0  0  0
    0.7466   33.5709   22.1854 H   0  0  0  0  0  0  0  0  0  0  0  0
    0.2055   32.4321   20.8910 H   0  0  0  0  0  0  0  0  0  0  0  0
  1 40  1  0
  1 41  1  0
  1 43  1  0
  1  2  1  0
  2  3  1  0
  3  4  2  0
  4  5  1  0
  4 37  1  0
  5 38  1  0
  5  6  2  0
  6  7  1  0
  7  8  2  0
  7 39  1  0
  3  8  1  0
  8  9  1  0
  9 10  1  0
  9 36  1  0
 10 11  2  0
 10 14  1  0
 11 12  1  0
 12 13  2  0
 12 42  1  0
 13 14  1  0
 13 15  1  0
 15 16  2  0
 15 20  1  0
 16 17  1  0
 16 44  1  0
 17 18  2  0
 17 45  1  0
 18 19  1  0
 18 46  1  0
 19 20  2  0
 19 21  1  0
 20 47  1  0
 21 22  2  0
 21 26  1  0
 22 23  1  0
 22 48  1  0
 23 24  2  0
 23 49  1  0
 24 25  1  0
 24 50  1  0
 25 26  2  0
 26 51  1  0
  6 27  1  0
 27 29  2  0
 27 30  1  0
 27 28  2  0
 30 31  1  0
 30 35  1  0
 31 32  1  0
 31 53  1  0
 31 54  1  0
 32 33  1  0
 32 34  1  0
 32 52  1  0
 33 34  1  0
 33 55  1  0
 33 56  1  0
 34 57  1  0
 34 58  1  0
M  END
>  <ConfID>  (3) 
3

>  <Score>  (3) 
-8.81

>  <VDW>  (3) 
-45.54

>  <Hbond>  (3) 
-0.45

>  <Electrop>  (3) 
-1.89

$$$$
test01
     RDKit          3D

 58 62  0  0  0  0  0  0  0  0999 V2000
    0.4278   30.0304   20.6688 C   0  0  0  0  0  0  0  0  0  0  0  0
    0.9498   29.3125   19.5523 O   0  0  0  0  0  0  0  0  0  0  0  0
    1.0247   27.9421   19.5056 C   0  0  0  0  0  0  0  0  0  0  0  0
    0.0534   27.0990   20.0676 C   0  0  0  0  0  0  0  0  0  0  0  0
    0.1858   25.7087   20.0011 C   0  0  0  0  0  0  0  0  0  0  0  0
    1.2701   25.1018   19.3698 C   0  0  0  0  0  0  0  0  0  0  0  0
    2.2562   25.9214   18.7862 C   0  0  0  0  0  0  0  0  0  0  0  0
    2.1829   27.3387   18.8157 C   0  0  0  0  0  0  0  0  0  0  0  0
    3.1709   28.1970   18.3889 N   0  0  0  0  0  0  0  0  0  0  0  0
    3.0206   29.0838   17.3757 C   0  0  0  0  0  0  0  0  0  0  0  0
    3.8948   29.2322   16.3514 N   0  0  0  0  0  0  0  0  0  0  0  0
    3.3796   30.2596   15.6143 C   0  0  0  0  0  0  0  0  0  0  0  0
    2.2114   30.7077   16.2426 C   0  0  0  0  0  0  0  0  0  0  0  0
    1.9810   29.9284   17.3218 O   0  0  0  0  0  0  0  0  0  0  0  0
    1.2364   31.7457   15.8685 C   0  0  0  0  0  0  0  0  0  0  0  0
    0.2174   32.0959   16.7690 C   0  0  0  0  0  0  0  0  0  0  0  0
   -0.7325   33.0392   16.4021 C   0  0  0  0  0  0  0  0  0  0  0  0
   -0.6926   33.6149   15.1330 C   0  0  0  0  0  0  0  0  0  0  0  0
    0.3053   33.2399   14.2186 C   0  0  0  0  0  0  0  0  0  0  0  0
    1.2596   32.2860   14.5883 C   0  0  0  0  0  0  0  0  0  0  0  0
    0.3533   33.8387   12.8505 C   0  0  0  0  0  0  0  0  0  0  0  0
    0.3680   35.2286   12.6945 C   0  0  0  0  0  0  0  0  0  0  0  0
    0.3949   35.7740   11.4126 C   0  0  0  0  0  0  0  0  0  0  0  0
    0.4388   34.9272   10.3066 C   0  0  0  0  0  0  0  0  0  0  0  0
    0.4442   33.5940   10.4819 N   0  0  0  0  0  0  0  0  0  0  0  0
    0.4006   33.0389   11.7056 C   0  0  0  0  0  0  0  0  0  0  0  0
    1.3289   23.4732   19.3039 S   0  0  0  0  0  0  0  0  0  0  0  0
    0.4380   22.9616   18.3116 O   0  0  0  0  0  0  0  0  0  0  0  0
    0.8726   22.9982   20.5791 O   0  0  0  0  0  0  0  0  0  0  0  0
    2.7837   22.9435   18.9283 N   0  0  0  0  0  0  0  0  0  0  0  0
    2.9620   21.5480   18.5610 C   0  0  0  0  0  0  0  0  0  0  0  0
    4.4351   21.2009   18.3769 C   0  0  0  0  0  0  0  0  0  0  0  0
    5.1162   20.4708   19.5276 C   0  0  0  0  0  0  0  0  0  0  0  0
    4.7256   19.7067   18.2658 C   0  0  0  0  0  0  0  0  0  0  0  0
    3.5363   23.3102   19.5142 H   0  0  0  0  0  0  0  0  0  0  0  0
    4.0925   27.9617   18.7327 H   0  0  0  0  0  0  0  0  0  0  0  0
   -0.8103   27.5098   20.5693 H   0  0  0  0  0  0  0  0  0  0  0  0
   -0.5870   25.0993   20.4491 H   0  0  0  0  0  0  0  0  0  0  0  0
    3.0815   25.4417   18.2826 H   0  0  0  0  0  0  0  0  0  0  0  0
    0.6139   31.0942   20.5363 H   0  0  0  0  0  0  0  0  0  0  0  0
   -0.6517   29.8966   20.7559 H   0  0  0  0  0  0  0  0  0  0  0  0
    3.8350   30.6391   14.7126 H   0  0  0  0  0  0  0  0  0  0  0  0
    0.9041   29.7127   21.5974 H   0  0  0  0  0  0  0  0  0  0  0  0
    0.1749   31.6542   17.7542 H   0  0  0  0  0  0  0  0  0  0  0  0
   -1.5074   33.3248   17.0975 H   0  0  0  0  0  0  0  0  0  0  0  0
   -1.4445   34.3380   14.8554 H   0  0  0  0  0  0  0  0  0  0  0  0
    2.0301   31.9891   13.8912 H   0  0  0  0  0  0  0  0  0  0  0  0
    0.3480   35.8895   13.5486 H   0  0  0  0  0  0  0  0  0  0  0  0
    0.3702   36.8429   11.2963 H   0  0  0  0  0  0  0  0  0  0  0  0
    0.4651   35.2980    9.2936 H   0  0  0  0  0  0  0  0  0  0  0  0
    0.4081   31.9609   11.7489 H   0  0  0  0  0  0  0  0  0  0  0  0
    5.0022   21.8944   17.7539 H   0  0  0  0  0  0  0  0  0  0  0  0
    2.4256   21.3868   17.6252 H   0  0  0  0  0  0  0  0  0  0  0  0
    2.4847   20.9097   19.3075 H   0  0  0  0  0  0  0  0  0  0  0  0
    4.5551   20.3144   20.4492 H   0  0  0  0  0  0  0  0  0  0  0  0
    6.1711   20.6744   19.7157 H   0  0  0  0  0  0  0  0  0  0  0  0
    5.5131   19.3741   17.5918 H   0  0  0  0  0  0  0  0  0  0  0  0
    3.8958   18.9991   18.3050 H   0  0  0  0  0  0  0  0  0  0  0  0
  1 40  1  0
  1 41  1  0
  1 43  1  0
  1  2  1  0
  2  3  1  0
  3  4  2  0
  4  5  1  0
  4 37  1  0
  5 38  1  0
  5  6  2  0
  6  7  1  0
  7  8  2  0
  7 39  1  0
  3  8  1  0
  8  9  1  0
  9 10  1  0
  9 36  1  0
 10 11  2  0
 10 14  1  0
 11 12  1  0
 12 13  2  0
 12 42  1  0
 13 14  1  0
 13 15  1  0
 15 16  2  0
 15 20  1  0
 16 17  1  0
 16 44  1  0
 17 18  2  0
 17 45  1  0
 18 19  1  0
 18 46  1  0
 19 20  2  0
 19 21  1  0
 20 47  1  0
 21 22  2  0
 21 26  1  0
 22 23  1  0
 22 48  1  0
 23 24  2  0
 23 49  1  0
 24 25  1  0
 24 50  1  0
 25 26  2  0
 26 51  1  0
  6 27  1  0
 27 29  2  0
 27 30  1  0
 27 28  2  0
 30 31  1  0
 30 35  1  0
 31 32  1  0
 31 53  1  0
 31 54  1  0
 32 33  1  0
 32 34  1  0
 32 52  1  0
 33 34  1  0
 33 55  1  0
 33 56  1  0
 34 57  1  0
 34 58  1  0
M  END
>  <ConfID>  (4) 
4

>  <Score>  (4) 
-8.77

>  <VDW>  (4) 
-46.35

>  <Hbond>  (4) 
-1.37

>  <Electrop>  (4) 
-2.21

$$$$
test01
     RDKit          3D

 58 62  0  0  0  0  0  0  0  0999 V2000
   -3.7513   36.2283   22.9589 C   0  0  0  0  0  0  0  0  0  0  0  0
   -2.5765   35.6288   23.5020 O   0  0  0  0  0  0  0  0  0  0  0  0
   -2.1666   34.3560   23.1897 C   0  0  0  0  0  0  0  0  0  0  0  0
   -2.4107   33.2454   24.0126 C   0  0  0  0  0  0  0  0  0  0  0  0
   -1.9600   31.9723   23.6509 C   0  0  0  0  0  0  0  0  0  0  0  0
   -1.2657   31.7469   22.4635 C   0  0  0  0  0  0  0  0  0  0  0  0
   -1.0148   32.8399   21.6108 C   0  0  0  0  0  0  0  0  0  0  0  0
   -1.4456   34.1576   21.9159 C   0  0  0  0  0  0  0  0  0  0  0  0
   -1.1198   35.2882   21.2013 N   0  0  0  0  0  0  0  0  0  0  0  0
   -1.0717   35.3436   19.8484 C   0  0  0  0  0  0  0  0  0  0  0  0
   -1.7065   36.2750   19.0967 N   0  0  0  0  0  0  0  0  0  0  0  0
   -1.4307   35.9143   17.8090 C   0  0  0  0  0  0  0  0  0  0  0  0
   -0.6474   34.7542   17.8364 C   0  0  0  0  0  0  0  0  0  0  0  0
   -0.3977   34.4377   19.1258 O   0  0  0  0  0  0  0  0  0  0  0  0
   -0.0311   33.9648   16.7570 C   0  0  0  0  0  0  0  0  0  0  0  0
   -0.2526   34.3290   15.4190 C   0  0  0  0  0  0  0  0  0  0  0  0
    0.2865   33.5599   14.3970 C   0  0  0  0  0  0  0  0  0  0  0  0
    1.0203   32.4132   14.6972 C   0  0  0  0  0  0  0  0  0  0  0  0
    1.2132   32.0281   16.0340 C   0  0  0  0  0  0  0  0  0  0  0  0
    0.6657   32.8019   17.0629 C   0  0  0  0  0  0  0  0  0  0  0  0
    1.9864   30.7947   16.3708 C   0  0  0  0  0  0  0  0  0  0  0  0
    1.3906   29.7792   17.1261 C   0  0  0  0  0  0  0  0  0  0  0  0
    2.1286   28.6421   17.4483 C   0  0  0  0  0  0  0  0  0  0  0  0
    3.4379   28.5193   16.9868 C   0  0  0  0  0  0  0  0  0  0  0  0
    3.9828   29.4997   16.2451 N   0  0  0  0  0  0  0  0  0  0  0  0
    3.3016   30.6161   15.9336 C   0  0  0  0  0  0  0  0  0  0  0  0
   -0.8081   30.2244   22.0988 S   0  0  0  0  0  0  0  0  0  0  0  0
   -0.9498   29.3564   23.2243 O   0  0  0  0  0  0  0  0  0  0  0  0
    0.5888   30.2865   21.7753 O   0  0  0  0  0  0  0  0  0  0  0  0
   -1.6896   29.6011   20.9273 N   0  0  0  0  0  0  0  0  0  0  0  0
   -1.4115   29.9740   19.5496 C   0  0  0  0  0  0  0  0  0  0  0  0
   -2.6739   30.4307   18.8271 C   0  0  0  0  0  0  0  0  0  0  0  0
   -2.8145   31.9261   18.5718 C   0  0  0  0  0  0  0  0  0  0  0  0
   -2.4362   30.9905   17.4273 C   0  0  0  0  0  0  0  0  0  0  0  0
   -2.6871   29.5271   21.1361 H   0  0  0  0  0  0  0  0  0  0  0  0
   -0.6950   36.0161   21.7603 H   0  0  0  0  0  0  0  0  0  0  0  0
   -2.9445   33.3562   24.9449 H   0  0  0  0  0  0  0  0  0  0  0  0
   -2.1705   31.1468   24.3168 H   0  0  0  0  0  0  0  0  0  0  0  0
   -0.4939   32.6515   20.6845 H   0  0  0  0  0  0  0  0  0  0  0  0
   -3.8352   37.2526   23.3162 H   0  0  0  0  0  0  0  0  0  0  0  0
   -3.7093   36.2654   21.8692 H   0  0  0  0  0  0  0  0  0  0  0  0
   -1.7871   36.4536   16.9449 H   0  0  0  0  0  0  0  0  0  0  0  0
   -4.6466   35.6849   23.2645 H   0  0  0  0  0  0  0  0  0  0  0  0
   -0.8221   35.2142   15.1745 H   0  0  0  0  0  0  0  0  0  0  0  0
    0.1339   33.8459   13.3672 H   0  0  0  0  0  0  0  0  0  0  0  0
    1.4238   31.8168   13.8930 H   0  0  0  0  0  0  0  0  0  0  0  0
    0.8066   32.5129   18.0946 H   0  0  0  0  0  0  0  0  0  0  0  0
    0.3717   29.8632   17.4747 H   0  0  0  0  0  0  0  0  0  0  0  0
    1.6785   27.8798   18.0590 H   0  0  0  0  0  0  0  0  0  0  0  0
    4.0504   27.6580   17.2041 H   0  0  0  0  0  0  0  0  0  0  0  0
    3.8201   31.3486   15.3348 H   0  0  0  0  0  0  0  0  0  0  0  0
   -3.5592   29.8182   19.0049 H   0  0  0  0  0  0  0  0  0  0  0  0
   -0.9992   29.0956   19.0517 H   0  0  0  0  0  0  0  0  0  0  0  0
   -0.6323   30.7387   19.5281 H   0  0  0  0  0  0  0  0  0  0  0  0
   -2.0649   32.5980   18.9905 H   0  0  0  0  0  0  0  0  0  0  0  0
   -3.8147   32.3609   18.5891 H   0  0  0  0  0  0  0  0  0  0  0  0
   -3.1725   30.7911   16.6506 H   0  0  0  0  0  0  0  0  0  0  0  0
   -1.4202   31.0158   17.0300 H   0  0  0  0  0  0  0  0  0  0  0  0
  1 40  1  0
  1 41  1  0
  1 43  1  0
  1  2  1  0
  2  3  1  0
  3  4  2  0
  4  5  1  0
  4 37  1  0
  5 38  1  0
  5  6  2  0
  6  7  1  0
  7  8  2  0
  7 39  1  0
  3  8  1  0
  8  9  1  0
  9 10  1  0
  9 36  1  0
 10 11  2  0
 10 14  1  0
 11 12  1  0
 12 13  2  0
 12 42  1  0
 13 14  1  0
 13 15  1  0
 15 16  2  0
 15 20  1  0
 16 17  1  0
 16 44  1  0
 17 18  2  0
 17 45  1  0
 18 19  1  0
 18 46  1  0
 19 20  2  0
 19 21  1  0
 20 47  1  0
 21 22  2  0
 21 26  1  0
 22 23  1  0
 22 48  1  0
 23 24  2  0
 23 49  1  0
 24 25  1  0
 24 50  1  0
 25 26  2  0
 26 51  1  0
  6 27  1  0
 27 29  2  0
 27 30  1  0
 27 28  2  0
 30 31  1  0
 30 35  1  0
 31 32  1  0
 31 53  1  0
 31 54  1  0
 32 33  1  0
 32 34  1  0
 32 52  1  0
 33 34  1  0
 33 55  1  0
 33 56  1  0
 34 57  1  0
 34 58  1  0
M  END
>  <ConfID>  (5) 
5

>  <Score>  (5) 
-8.67

>  <VDW>  (5) 
-39.02

>  <Hbond>  (5) 
-1.34

>  <Electrop>  (5) 
-3.11

$$$$
